Circuit: * C:\Users\Mark\Documents\Working-Projects\ContinuousRatio\LTspice\contRatioTB.asc

Direct Newton iteration for .op point succeeded.
Ignoring empty pin current: Ix(x1:clk[1])
Ignoring empty pin current: Ix(x1:clk[2])
Ignoring empty pin current: Ix(x1:clk[3])
Ignoring empty pin current: Ix(x1:clk[4])
Ignoring empty pin current: Ix(x1:clk[5])
Ignoring empty pin current: Ix(x1:clk[6])
Ignoring empty pin current: Ix(x1:clk[7])
Ignoring empty pin current: Ix(x1:clk[8])
Ignoring empty pin current: Ix(x1:clk[9])
Ignoring empty pin current: Ix(x1:clk[10])
Ignoring empty pin current: Ix(x1:clk[11])
Ignoring empty pin current: Ix(x1:clk[12])
Ignoring empty pin current: Ix(x1:clk[13])
Ignoring empty pin current: Ix(x1:clk[14])
Ignoring empty pin current: Ix(x1:clk[15])
Ignoring empty pin current: Ix(x1:clk[16])
Ignoring empty pin current: Ix(x1:clk[17])
Ignoring empty pin current: Ix(x1:clk[18])
Ignoring empty pin current: Ix(x1:clk[19])
Ignoring empty pin current: Ix(x1:clk[20])
Ignoring empty pin current: Ix(x1:clk[21])
Ignoring empty pin current: Ix(x1:clk[22])
Ignoring empty pin current: Ix(x1:clk[23])
Ignoring empty pin current: Ix(x1:clk[24])
Ignoring empty pin current: Ix(x1:clk[25])
Ignoring empty pin current: Ix(x1:clk[26])
Ignoring empty pin current: Ix(x1:clk[27])
Ignoring empty pin current: Ix(x1:clk[28])
Ignoring empty pin current: Ix(x1:clk[29])
Ignoring empty pin current: Ix(x1:clk[30])
Ignoring empty pin current: Ix(x1:clk[31])
Ignoring empty pin current: Ix(x1:clk[32])
Ignoring empty pin current: Ix(x1:clk[33])
Ignoring empty pin current: Ix(x1:clk[34])
Ignoring empty pin current: Ix(x1:clk[35])
Ignoring empty pin current: Ix(x1:clk[36])
Ignoring empty pin current: Ix(x2:clk)
Ignoring empty pin current: Ix(x3:clk[1])
Ignoring empty pin current: Ix(x3:clk[2])
Ignoring empty pin current: Ix(x3:clk[3])
Ignoring empty pin current: Ix(x3:clk[4])
Ignoring empty pin current: Ix(x3:clk[5])
Ignoring empty pin current: Ix(x3:clk[6])
Ignoring empty pin current: Ix(x3:clk[7])
Ignoring empty pin current: Ix(x3:clk[8])
Ignoring empty pin current: Ix(x3:clk[9])
Ignoring empty pin current: Ix(x3:clk[10])
Ignoring empty pin current: Ix(x3:clk[11])
Ignoring empty pin current: Ix(x3:clk[12])
Ignoring empty pin current: Ix(x3:clk[13])
Ignoring empty pin current: Ix(x3:clk[14])
Ignoring empty pin current: Ix(x3:clk[15])
Ignoring empty pin current: Ix(x3:clk[16])
Ignoring empty pin current: Ix(x3:clk[17])
Ignoring empty pin current: Ix(x3:clk[18])
Ignoring empty pin current: Ix(x3:clk[19])
Ignoring empty pin current: Ix(x3:clk[20])
Ignoring empty pin current: Ix(x3:clk[21])
Ignoring empty pin current: Ix(x3:clk[22])
Ignoring empty pin current: Ix(x3:clk[23])
Ignoring empty pin current: Ix(x3:clk[24])
Ignoring empty pin current: Ix(x3:clk[25])
Ignoring empty pin current: Ix(x3:clk[26])
Ignoring empty pin current: Ix(x3:clk[27])
Ignoring empty pin current: Ix(x3:clk[28])
Ignoring empty pin current: Ix(x3:clk[29])
Ignoring empty pin current: Ix(x3:clk[30])
Ignoring empty pin current: Ix(x3:clk[31])
Ignoring empty pin current: Ix(x3:clk[32])
Ignoring empty pin current: Ix(x3:clk[33])
Ignoring empty pin current: Ix(x3:clk[34])
Ignoring empty pin current: Ix(x3:clk[35])
Ignoring empty pin current: Ix(x3:clk[36])
Ignoring empty pin current: Ix(x4:clk[1])
Ignoring empty pin current: Ix(x4:clk[2])
Ignoring empty pin current: Ix(x4:clk[3])
Ignoring empty pin current: Ix(x4:clk[4])
Ignoring empty pin current: Ix(x4:clk[5])
Ignoring empty pin current: Ix(x4:clk[6])
Ignoring empty pin current: Ix(x4:clk[7])
Ignoring empty pin current: Ix(x4:clk[8])
Ignoring empty pin current: Ix(x4:clk[9])
Ignoring empty pin current: Ix(x4:clk[10])
Ignoring empty pin current: Ix(x4:clk[11])
Ignoring empty pin current: Ix(x4:clk[12])
Ignoring empty pin current: Ix(x4:clk[13])
Ignoring empty pin current: Ix(x4:clk[14])
Ignoring empty pin current: Ix(x4:clk[15])
Ignoring empty pin current: Ix(x4:clk[16])
Ignoring empty pin current: Ix(x4:clk[17])
Ignoring empty pin current: Ix(x4:clk[18])
Ignoring empty pin current: Ix(x4:clk[19])
Ignoring empty pin current: Ix(x4:clk[20])
Ignoring empty pin current: Ix(x4:clk[21])
Ignoring empty pin current: Ix(x4:clk[22])
Ignoring empty pin current: Ix(x4:clk[23])
Ignoring empty pin current: Ix(x4:clk[24])
Ignoring empty pin current: Ix(x4:clk[25])
Ignoring empty pin current: Ix(x4:clk[26])
Ignoring empty pin current: Ix(x4:clk[27])
Ignoring empty pin current: Ix(x4:clk[28])
Ignoring empty pin current: Ix(x4:clk[29])
Ignoring empty pin current: Ix(x4:clk[30])
Ignoring empty pin current: Ix(x4:clk[31])
Ignoring empty pin current: Ix(x4:clk[32])
Ignoring empty pin current: Ix(x4:clk[33])
Ignoring empty pin current: Ix(x4:clk[34])
Ignoring empty pin current: Ix(x4:clk[35])
Ignoring empty pin current: Ix(x4:clk[36])
Ignoring empty pin current: Ix(x5:clk[1])
Ignoring empty pin current: Ix(x5:clk[2])
Ignoring empty pin current: Ix(x5:clk[3])
Ignoring empty pin current: Ix(x5:clk[4])
Ignoring empty pin current: Ix(x5:clk[5])
Ignoring empty pin current: Ix(x5:clk[6])
Ignoring empty pin current: Ix(x5:clk[7])
Ignoring empty pin current: Ix(x5:clk[8])
Ignoring empty pin current: Ix(x5:clk[9])
Ignoring empty pin current: Ix(x5:clk[10])
Ignoring empty pin current: Ix(x5:clk[11])
Ignoring empty pin current: Ix(x5:clk[12])
Ignoring empty pin current: Ix(x5:clk[13])
Ignoring empty pin current: Ix(x5:clk[14])
Ignoring empty pin current: Ix(x5:clk[15])
Ignoring empty pin current: Ix(x5:clk[16])
Ignoring empty pin current: Ix(x5:clk[17])
Ignoring empty pin current: Ix(x5:clk[18])
Ignoring empty pin current: Ix(x5:clk[19])
Ignoring empty pin current: Ix(x5:clk[20])
Ignoring empty pin current: Ix(x5:clk[21])
Ignoring empty pin current: Ix(x5:clk[22])
Ignoring empty pin current: Ix(x5:clk[23])
Ignoring empty pin current: Ix(x5:clk[24])
Ignoring empty pin current: Ix(x5:clk[25])
Ignoring empty pin current: Ix(x5:clk[26])
Ignoring empty pin current: Ix(x5:clk[27])
Ignoring empty pin current: Ix(x5:clk[28])
Ignoring empty pin current: Ix(x5:clk[29])
Ignoring empty pin current: Ix(x5:clk[30])
Ignoring empty pin current: Ix(x5:clk[31])
Ignoring empty pin current: Ix(x5:clk[32])
Ignoring empty pin current: Ix(x5:clk[33])
Ignoring empty pin current: Ix(x5:clk[34])
Ignoring empty pin current: Ix(x5:clk[35])
Ignoring empty pin current: Ix(x5:clk[36])
Ignoring empty pin current: Ix(x1:clk[1])
Ignoring empty pin current: Ix(x1:clk[2])
Ignoring empty pin current: Ix(x1:clk[3])
Ignoring empty pin current: Ix(x1:clk[4])
Ignoring empty pin current: Ix(x1:clk[5])
Ignoring empty pin current: Ix(x1:clk[6])
Ignoring empty pin current: Ix(x1:clk[7])
Ignoring empty pin current: Ix(x1:clk[8])
Ignoring empty pin current: Ix(x1:clk[9])
Ignoring empty pin current: Ix(x1:clk[10])
Ignoring empty pin current: Ix(x1:clk[11])
Ignoring empty pin current: Ix(x1:clk[12])
Ignoring empty pin current: Ix(x1:clk[13])
Ignoring empty pin current: Ix(x1:clk[14])
Ignoring empty pin current: Ix(x1:clk[15])
Ignoring empty pin current: Ix(x1:clk[16])
Ignoring empty pin current: Ix(x1:clk[17])
Ignoring empty pin current: Ix(x1:clk[18])
Ignoring empty pin current: Ix(x1:clk[19])
Ignoring empty pin current: Ix(x1:clk[20])
Ignoring empty pin current: Ix(x1:clk[21])
Ignoring empty pin current: Ix(x1:clk[22])
Ignoring empty pin current: Ix(x1:clk[23])
Ignoring empty pin current: Ix(x1:clk[24])
Ignoring empty pin current: Ix(x1:clk[25])
Ignoring empty pin current: Ix(x1:clk[26])
Ignoring empty pin current: Ix(x1:clk[27])
Ignoring empty pin current: Ix(x1:clk[28])
Ignoring empty pin current: Ix(x1:clk[29])
Ignoring empty pin current: Ix(x1:clk[30])
Ignoring empty pin current: Ix(x1:clk[31])
Ignoring empty pin current: Ix(x1:clk[32])
Ignoring empty pin current: Ix(x1:clk[33])
Ignoring empty pin current: Ix(x1:clk[34])
Ignoring empty pin current: Ix(x1:clk[35])
Ignoring empty pin current: Ix(x1:clk[36])
Ignoring empty pin current: Ix(x2:clk)
Ignoring empty pin current: Ix(x3:clk[1])
Ignoring empty pin current: Ix(x3:clk[2])
Ignoring empty pin current: Ix(x3:clk[3])
Ignoring empty pin current: Ix(x3:clk[4])
Ignoring empty pin current: Ix(x3:clk[5])
Ignoring empty pin current: Ix(x3:clk[6])
Ignoring empty pin current: Ix(x3:clk[7])
Ignoring empty pin current: Ix(x3:clk[8])
Ignoring empty pin current: Ix(x3:clk[9])
Ignoring empty pin current: Ix(x3:clk[10])
Ignoring empty pin current: Ix(x3:clk[11])
Ignoring empty pin current: Ix(x3:clk[12])
Ignoring empty pin current: Ix(x3:clk[13])
Ignoring empty pin current: Ix(x3:clk[14])
Ignoring empty pin current: Ix(x3:clk[15])
Ignoring empty pin current: Ix(x3:clk[16])
Ignoring empty pin current: Ix(x3:clk[17])
Ignoring empty pin current: Ix(x3:clk[18])
Ignoring empty pin current: Ix(x3:clk[19])
Ignoring empty pin current: Ix(x3:clk[20])
Ignoring empty pin current: Ix(x3:clk[21])
Ignoring empty pin current: Ix(x3:clk[22])
Ignoring empty pin current: Ix(x3:clk[23])
Ignoring empty pin current: Ix(x3:clk[24])
Ignoring empty pin current: Ix(x3:clk[25])
Ignoring empty pin current: Ix(x3:clk[26])
Ignoring empty pin current: Ix(x3:clk[27])
Ignoring empty pin current: Ix(x3:clk[28])
Ignoring empty pin current: Ix(x3:clk[29])
Ignoring empty pin current: Ix(x3:clk[30])
Ignoring empty pin current: Ix(x3:clk[31])
Ignoring empty pin current: Ix(x3:clk[32])
Ignoring empty pin current: Ix(x3:clk[33])
Ignoring empty pin current: Ix(x3:clk[34])
Ignoring empty pin current: Ix(x3:clk[35])
Ignoring empty pin current: Ix(x3:clk[36])
Ignoring empty pin current: Ix(x4:clk[1])
Ignoring empty pin current: Ix(x4:clk[2])
Ignoring empty pin current: Ix(x4:clk[3])
Ignoring empty pin current: Ix(x4:clk[4])
Ignoring empty pin current: Ix(x4:clk[5])
Ignoring empty pin current: Ix(x4:clk[6])
Ignoring empty pin current: Ix(x4:clk[7])
Ignoring empty pin current: Ix(x4:clk[8])
Ignoring empty pin current: Ix(x4:clk[9])
Ignoring empty pin current: Ix(x4:clk[10])
Ignoring empty pin current: Ix(x4:clk[11])
Ignoring empty pin current: Ix(x4:clk[12])
Ignoring empty pin current: Ix(x4:clk[13])
Ignoring empty pin current: Ix(x4:clk[14])
Ignoring empty pin current: Ix(x4:clk[15])
Ignoring empty pin current: Ix(x4:clk[16])
Ignoring empty pin current: Ix(x4:clk[17])
Ignoring empty pin current: Ix(x4:clk[18])
Ignoring empty pin current: Ix(x4:clk[19])
Ignoring empty pin current: Ix(x4:clk[20])
Ignoring empty pin current: Ix(x4:clk[21])
Ignoring empty pin current: Ix(x4:clk[22])
Ignoring empty pin current: Ix(x4:clk[23])
Ignoring empty pin current: Ix(x4:clk[24])
Ignoring empty pin current: Ix(x4:clk[25])
Ignoring empty pin current: Ix(x4:clk[26])
Ignoring empty pin current: Ix(x4:clk[27])
Ignoring empty pin current: Ix(x4:clk[28])
Ignoring empty pin current: Ix(x4:clk[29])
Ignoring empty pin current: Ix(x4:clk[30])
Ignoring empty pin current: Ix(x4:clk[31])
Ignoring empty pin current: Ix(x4:clk[32])
Ignoring empty pin current: Ix(x4:clk[33])
Ignoring empty pin current: Ix(x4:clk[34])
Ignoring empty pin current: Ix(x4:clk[35])
Ignoring empty pin current: Ix(x4:clk[36])
Ignoring empty pin current: Ix(x5:clk[1])
Ignoring empty pin current: Ix(x5:clk[2])
Ignoring empty pin current: Ix(x5:clk[3])
Ignoring empty pin current: Ix(x5:clk[4])
Ignoring empty pin current: Ix(x5:clk[5])
Ignoring empty pin current: Ix(x5:clk[6])
Ignoring empty pin current: Ix(x5:clk[7])
Ignoring empty pin current: Ix(x5:clk[8])
Ignoring empty pin current: Ix(x5:clk[9])
Ignoring empty pin current: Ix(x5:clk[10])
Ignoring empty pin current: Ix(x5:clk[11])
Ignoring empty pin current: Ix(x5:clk[12])
Ignoring empty pin current: Ix(x5:clk[13])
Ignoring empty pin current: Ix(x5:clk[14])
Ignoring empty pin current: Ix(x5:clk[15])
Ignoring empty pin current: Ix(x5:clk[16])
Ignoring empty pin current: Ix(x5:clk[17])
Ignoring empty pin current: Ix(x5:clk[18])
Ignoring empty pin current: Ix(x5:clk[19])
Ignoring empty pin current: Ix(x5:clk[20])
Ignoring empty pin current: Ix(x5:clk[21])
Ignoring empty pin current: Ix(x5:clk[22])
Ignoring empty pin current: Ix(x5:clk[23])
Ignoring empty pin current: Ix(x5:clk[24])
Ignoring empty pin current: Ix(x5:clk[25])
Ignoring empty pin current: Ix(x5:clk[26])
Ignoring empty pin current: Ix(x5:clk[27])
Ignoring empty pin current: Ix(x5:clk[28])
Ignoring empty pin current: Ix(x5:clk[29])
Ignoring empty pin current: Ix(x5:clk[30])
Ignoring empty pin current: Ix(x5:clk[31])
Ignoring empty pin current: Ix(x5:clk[32])
Ignoring empty pin current: Ix(x5:clk[33])
Ignoring empty pin current: Ix(x5:clk[34])
Ignoring empty pin current: Ix(x5:clk[35])
Ignoring empty pin current: Ix(x5:clk[36])
Heightened Def Con from 8.00591e-009 to 8.00591e-009
Heightened Def Con from 8.00592e-009 to 8.00592e-009
Heightened Def Con from 8.00593e-009 to 8.00593e-009
Heightened Def Con from 1.20059e-008 to 1.20059e-008
Heightened Def Con from 1.20059e-008 to 1.20059e-008
Heightened Def Con from 1.20059e-008 to 1.20059e-008
Heightened Def Con from 1.60058e-008 to 1.60061e-008
Heightened Def Con from 2.00059e-008 to 2.00059e-008
Heightened Def Con from 2.00059e-008 to 2.00059e-008
Heightened Def Con from 2.00059e-008 to 2.00059e-008
Heightened Def Con from 2.40059e-008 to 2.40059e-008
Heightened Def Con from 2.40059e-008 to 2.40059e-008
Heightened Def Con from 2.40059e-008 to 2.40059e-008
Heightened Def Con from 2.80059e-008 to 2.80059e-008
Heightened Def Con from 2.80059e-008 to 2.80059e-008
Heightened Def Con from 2.80059e-008 to 2.80059e-008
Heightened Def Con from 3.60059e-008 to 3.60059e-008
Heightened Def Con from 3.60059e-008 to 3.60059e-008
Heightened Def Con from 3.60059e-008 to 3.60059e-008
Heightened Def Con from 4.00059e-008 to 4.00059e-008
Heightened Def Con from 4.00059e-008 to 4.00059e-008
Heightened Def Con from 4.00059e-008 to 4.00059e-008
Heightened Def Con from 4.40059e-008 to 4.40059e-008
Heightened Def Con from 4.40059e-008 to 4.40059e-008
Heightened Def Con from 4.40059e-008 to 4.40059e-008
Heightened Def Con from 4.80059e-008 to 4.80059e-008
Heightened Def Con from 4.80059e-008 to 4.80059e-008
Heightened Def Con from 4.80059e-008 to 4.80059e-008
Heightened Def Con from 5.20059e-008 to 5.20059e-008
Heightened Def Con from 5.20059e-008 to 5.20059e-008
Heightened Def Con from 5.20059e-008 to 5.20059e-008
Heightened Def Con from 5.57372e-008 to 5.57372e-008

Date: Mon Jun 01 14:20:14 2020
Total elapsed time: 88.115 seconds.

tnom = 27
temp = 27
method = modified trap
totiter = 29394
traniter = 29386
tranpoints = 7629
accept = 6409
rejected = 1252
matrix size = 7767
fillins = 816
solver = Normal
Thread vector: 3921.9/1803.0[8] 423.5/216.6[8] 775.0/330.7[8] 75.6/46.8[7]  2592/500
Matrix Compiler1: 523.94 KB object code size  664.4/237.2/[137.9]
Matrix Compiler2: 774.81 KB object code size  297.6/298.6/[101.7]

