Circuit: * C:\Users\Mark\Documents\Working-Projects\ContinuousRatio\LTspice\contRatioTB.asc

Direct Newton iteration for .op point succeeded.
Ignoring empty pin current: Ix(x1:clk[1])
Ignoring empty pin current: Ix(x1:clk[2])
Ignoring empty pin current: Ix(x1:clk[3])
Ignoring empty pin current: Ix(x1:clk[4])
Ignoring empty pin current: Ix(x1:clk[5])
Ignoring empty pin current: Ix(x1:clk[6])
Ignoring empty pin current: Ix(x1:clk[7])
Ignoring empty pin current: Ix(x1:clk[8])
Ignoring empty pin current: Ix(x1:clk[9])
Ignoring empty pin current: Ix(x1:clk[10])
Ignoring empty pin current: Ix(x1:clk[11])
Ignoring empty pin current: Ix(x1:clk[12])
Ignoring empty pin current: Ix(x1:clk[13])
Ignoring empty pin current: Ix(x1:clk[14])
Ignoring empty pin current: Ix(x1:clk[15])
Ignoring empty pin current: Ix(x1:clk[16])
Ignoring empty pin current: Ix(x1:clk[17])
Ignoring empty pin current: Ix(x1:clk[18])
Ignoring empty pin current: Ix(x1:clk[19])
Ignoring empty pin current: Ix(x1:clk[20])
Ignoring empty pin current: Ix(x1:clk[21])
Ignoring empty pin current: Ix(x1:clk[22])
Ignoring empty pin current: Ix(x1:clk[23])
Ignoring empty pin current: Ix(x1:clk[24])
Ignoring empty pin current: Ix(x1:clk[25])
Ignoring empty pin current: Ix(x1:clk[26])
Ignoring empty pin current: Ix(x1:clk[27])
Ignoring empty pin current: Ix(x1:clk[28])
Ignoring empty pin current: Ix(x1:clk[29])
Ignoring empty pin current: Ix(x1:clk[30])
Ignoring empty pin current: Ix(x1:clk[31])
Ignoring empty pin current: Ix(x1:clk[32])
Ignoring empty pin current: Ix(x1:clk[33])
Ignoring empty pin current: Ix(x1:clk[34])
Ignoring empty pin current: Ix(x1:clk[35])
Ignoring empty pin current: Ix(x1:clk[36])
Ignoring empty pin current: Ix(x2:clk)
Ignoring empty pin current: Ix(x3:clk[1])
Ignoring empty pin current: Ix(x3:clk[2])
Ignoring empty pin current: Ix(x3:clk[3])
Ignoring empty pin current: Ix(x3:clk[4])
Ignoring empty pin current: Ix(x3:clk[5])
Ignoring empty pin current: Ix(x3:clk[6])
Ignoring empty pin current: Ix(x3:clk[7])
Ignoring empty pin current: Ix(x3:clk[8])
Ignoring empty pin current: Ix(x3:clk[9])
Ignoring empty pin current: Ix(x3:clk[10])
Ignoring empty pin current: Ix(x3:clk[11])
Ignoring empty pin current: Ix(x3:clk[12])
Ignoring empty pin current: Ix(x3:clk[13])
Ignoring empty pin current: Ix(x3:clk[14])
Ignoring empty pin current: Ix(x3:clk[15])
Ignoring empty pin current: Ix(x3:clk[16])
Ignoring empty pin current: Ix(x3:clk[17])
Ignoring empty pin current: Ix(x3:clk[18])
Ignoring empty pin current: Ix(x3:clk[19])
Ignoring empty pin current: Ix(x3:clk[20])
Ignoring empty pin current: Ix(x3:clk[21])
Ignoring empty pin current: Ix(x3:clk[22])
Ignoring empty pin current: Ix(x3:clk[23])
Ignoring empty pin current: Ix(x3:clk[24])
Ignoring empty pin current: Ix(x3:clk[25])
Ignoring empty pin current: Ix(x3:clk[26])
Ignoring empty pin current: Ix(x3:clk[27])
Ignoring empty pin current: Ix(x3:clk[28])
Ignoring empty pin current: Ix(x3:clk[29])
Ignoring empty pin current: Ix(x3:clk[30])
Ignoring empty pin current: Ix(x3:clk[31])
Ignoring empty pin current: Ix(x3:clk[32])
Ignoring empty pin current: Ix(x3:clk[33])
Ignoring empty pin current: Ix(x3:clk[34])
Ignoring empty pin current: Ix(x3:clk[35])
Ignoring empty pin current: Ix(x3:clk[36])
Ignoring empty pin current: Ix(x4:clk[1])
Ignoring empty pin current: Ix(x4:clk[2])
Ignoring empty pin current: Ix(x4:clk[3])
Ignoring empty pin current: Ix(x4:clk[4])
Ignoring empty pin current: Ix(x4:clk[5])
Ignoring empty pin current: Ix(x4:clk[6])
Ignoring empty pin current: Ix(x4:clk[7])
Ignoring empty pin current: Ix(x4:clk[8])
Ignoring empty pin current: Ix(x4:clk[9])
Ignoring empty pin current: Ix(x4:clk[10])
Ignoring empty pin current: Ix(x4:clk[11])
Ignoring empty pin current: Ix(x4:clk[12])
Ignoring empty pin current: Ix(x4:clk[13])
Ignoring empty pin current: Ix(x4:clk[14])
Ignoring empty pin current: Ix(x4:clk[15])
Ignoring empty pin current: Ix(x4:clk[16])
Ignoring empty pin current: Ix(x4:clk[17])
Ignoring empty pin current: Ix(x4:clk[18])
Ignoring empty pin current: Ix(x4:clk[19])
Ignoring empty pin current: Ix(x4:clk[20])
Ignoring empty pin current: Ix(x4:clk[21])
Ignoring empty pin current: Ix(x4:clk[22])
Ignoring empty pin current: Ix(x4:clk[23])
Ignoring empty pin current: Ix(x4:clk[24])
Ignoring empty pin current: Ix(x4:clk[25])
Ignoring empty pin current: Ix(x4:clk[26])
Ignoring empty pin current: Ix(x4:clk[27])
Ignoring empty pin current: Ix(x4:clk[28])
Ignoring empty pin current: Ix(x4:clk[29])
Ignoring empty pin current: Ix(x4:clk[30])
Ignoring empty pin current: Ix(x4:clk[31])
Ignoring empty pin current: Ix(x4:clk[32])
Ignoring empty pin current: Ix(x4:clk[33])
Ignoring empty pin current: Ix(x4:clk[34])
Ignoring empty pin current: Ix(x4:clk[35])
Ignoring empty pin current: Ix(x4:clk[36])
Ignoring empty pin current: Ix(x5:clk[1])
Ignoring empty pin current: Ix(x5:clk[2])
Ignoring empty pin current: Ix(x5:clk[3])
Ignoring empty pin current: Ix(x5:clk[4])
Ignoring empty pin current: Ix(x5:clk[5])
Ignoring empty pin current: Ix(x5:clk[6])
Ignoring empty pin current: Ix(x5:clk[7])
Ignoring empty pin current: Ix(x5:clk[8])
Ignoring empty pin current: Ix(x5:clk[9])
Ignoring empty pin current: Ix(x5:clk[10])
Ignoring empty pin current: Ix(x5:clk[11])
Ignoring empty pin current: Ix(x5:clk[12])
Ignoring empty pin current: Ix(x5:clk[13])
Ignoring empty pin current: Ix(x5:clk[14])
Ignoring empty pin current: Ix(x5:clk[15])
Ignoring empty pin current: Ix(x5:clk[16])
Ignoring empty pin current: Ix(x5:clk[17])
Ignoring empty pin current: Ix(x5:clk[18])
Ignoring empty pin current: Ix(x5:clk[19])
Ignoring empty pin current: Ix(x5:clk[20])
Ignoring empty pin current: Ix(x5:clk[21])
Ignoring empty pin current: Ix(x5:clk[22])
Ignoring empty pin current: Ix(x5:clk[23])
Ignoring empty pin current: Ix(x5:clk[24])
Ignoring empty pin current: Ix(x5:clk[25])
Ignoring empty pin current: Ix(x5:clk[26])
Ignoring empty pin current: Ix(x5:clk[27])
Ignoring empty pin current: Ix(x5:clk[28])
Ignoring empty pin current: Ix(x5:clk[29])
Ignoring empty pin current: Ix(x5:clk[30])
Ignoring empty pin current: Ix(x5:clk[31])
Ignoring empty pin current: Ix(x5:clk[32])
Ignoring empty pin current: Ix(x5:clk[33])
Ignoring empty pin current: Ix(x5:clk[34])
Ignoring empty pin current: Ix(x5:clk[35])
Ignoring empty pin current: Ix(x5:clk[36])
Ignoring empty pin current: Ix(x1:clk[1])
Ignoring empty pin current: Ix(x1:clk[2])
Ignoring empty pin current: Ix(x1:clk[3])
Ignoring empty pin current: Ix(x1:clk[4])
Ignoring empty pin current: Ix(x1:clk[5])
Ignoring empty pin current: Ix(x1:clk[6])
Ignoring empty pin current: Ix(x1:clk[7])
Ignoring empty pin current: Ix(x1:clk[8])
Ignoring empty pin current: Ix(x1:clk[9])
Ignoring empty pin current: Ix(x1:clk[10])
Ignoring empty pin current: Ix(x1:clk[11])
Ignoring empty pin current: Ix(x1:clk[12])
Ignoring empty pin current: Ix(x1:clk[13])
Ignoring empty pin current: Ix(x1:clk[14])
Ignoring empty pin current: Ix(x1:clk[15])
Ignoring empty pin current: Ix(x1:clk[16])
Ignoring empty pin current: Ix(x1:clk[17])
Ignoring empty pin current: Ix(x1:clk[18])
Ignoring empty pin current: Ix(x1:clk[19])
Ignoring empty pin current: Ix(x1:clk[20])
Ignoring empty pin current: Ix(x1:clk[21])
Ignoring empty pin current: Ix(x1:clk[22])
Ignoring empty pin current: Ix(x1:clk[23])
Ignoring empty pin current: Ix(x1:clk[24])
Ignoring empty pin current: Ix(x1:clk[25])
Ignoring empty pin current: Ix(x1:clk[26])
Ignoring empty pin current: Ix(x1:clk[27])
Ignoring empty pin current: Ix(x1:clk[28])
Ignoring empty pin current: Ix(x1:clk[29])
Ignoring empty pin current: Ix(x1:clk[30])
Ignoring empty pin current: Ix(x1:clk[31])
Ignoring empty pin current: Ix(x1:clk[32])
Ignoring empty pin current: Ix(x1:clk[33])
Ignoring empty pin current: Ix(x1:clk[34])
Ignoring empty pin current: Ix(x1:clk[35])
Ignoring empty pin current: Ix(x1:clk[36])
Ignoring empty pin current: Ix(x2:clk)
Ignoring empty pin current: Ix(x3:clk[1])
Ignoring empty pin current: Ix(x3:clk[2])
Ignoring empty pin current: Ix(x3:clk[3])
Ignoring empty pin current: Ix(x3:clk[4])
Ignoring empty pin current: Ix(x3:clk[5])
Ignoring empty pin current: Ix(x3:clk[6])
Ignoring empty pin current: Ix(x3:clk[7])
Ignoring empty pin current: Ix(x3:clk[8])
Ignoring empty pin current: Ix(x3:clk[9])
Ignoring empty pin current: Ix(x3:clk[10])
Ignoring empty pin current: Ix(x3:clk[11])
Ignoring empty pin current: Ix(x3:clk[12])
Ignoring empty pin current: Ix(x3:clk[13])
Ignoring empty pin current: Ix(x3:clk[14])
Ignoring empty pin current: Ix(x3:clk[15])
Ignoring empty pin current: Ix(x3:clk[16])
Ignoring empty pin current: Ix(x3:clk[17])
Ignoring empty pin current: Ix(x3:clk[18])
Ignoring empty pin current: Ix(x3:clk[19])
Ignoring empty pin current: Ix(x3:clk[20])
Ignoring empty pin current: Ix(x3:clk[21])
Ignoring empty pin current: Ix(x3:clk[22])
Ignoring empty pin current: Ix(x3:clk[23])
Ignoring empty pin current: Ix(x3:clk[24])
Ignoring empty pin current: Ix(x3:clk[25])
Ignoring empty pin current: Ix(x3:clk[26])
Ignoring empty pin current: Ix(x3:clk[27])
Ignoring empty pin current: Ix(x3:clk[28])
Ignoring empty pin current: Ix(x3:clk[29])
Ignoring empty pin current: Ix(x3:clk[30])
Ignoring empty pin current: Ix(x3:clk[31])
Ignoring empty pin current: Ix(x3:clk[32])
Ignoring empty pin current: Ix(x3:clk[33])
Ignoring empty pin current: Ix(x3:clk[34])
Ignoring empty pin current: Ix(x3:clk[35])
Ignoring empty pin current: Ix(x3:clk[36])
Ignoring empty pin current: Ix(x4:clk[1])
Ignoring empty pin current: Ix(x4:clk[2])
Ignoring empty pin current: Ix(x4:clk[3])
Ignoring empty pin current: Ix(x4:clk[4])
Ignoring empty pin current: Ix(x4:clk[5])
Ignoring empty pin current: Ix(x4:clk[6])
Ignoring empty pin current: Ix(x4:clk[7])
Ignoring empty pin current: Ix(x4:clk[8])
Ignoring empty pin current: Ix(x4:clk[9])
Ignoring empty pin current: Ix(x4:clk[10])
Ignoring empty pin current: Ix(x4:clk[11])
Ignoring empty pin current: Ix(x4:clk[12])
Ignoring empty pin current: Ix(x4:clk[13])
Ignoring empty pin current: Ix(x4:clk[14])
Ignoring empty pin current: Ix(x4:clk[15])
Ignoring empty pin current: Ix(x4:clk[16])
Ignoring empty pin current: Ix(x4:clk[17])
Ignoring empty pin current: Ix(x4:clk[18])
Ignoring empty pin current: Ix(x4:clk[19])
Ignoring empty pin current: Ix(x4:clk[20])
Ignoring empty pin current: Ix(x4:clk[21])
Ignoring empty pin current: Ix(x4:clk[22])
Ignoring empty pin current: Ix(x4:clk[23])
Ignoring empty pin current: Ix(x4:clk[24])
Ignoring empty pin current: Ix(x4:clk[25])
Ignoring empty pin current: Ix(x4:clk[26])
Ignoring empty pin current: Ix(x4:clk[27])
Ignoring empty pin current: Ix(x4:clk[28])
Ignoring empty pin current: Ix(x4:clk[29])
Ignoring empty pin current: Ix(x4:clk[30])
Ignoring empty pin current: Ix(x4:clk[31])
Ignoring empty pin current: Ix(x4:clk[32])
Ignoring empty pin current: Ix(x4:clk[33])
Ignoring empty pin current: Ix(x4:clk[34])
Ignoring empty pin current: Ix(x4:clk[35])
Ignoring empty pin current: Ix(x4:clk[36])
Ignoring empty pin current: Ix(x5:clk[1])
Ignoring empty pin current: Ix(x5:clk[2])
Ignoring empty pin current: Ix(x5:clk[3])
Ignoring empty pin current: Ix(x5:clk[4])
Ignoring empty pin current: Ix(x5:clk[5])
Ignoring empty pin current: Ix(x5:clk[6])
Ignoring empty pin current: Ix(x5:clk[7])
Ignoring empty pin current: Ix(x5:clk[8])
Ignoring empty pin current: Ix(x5:clk[9])
Ignoring empty pin current: Ix(x5:clk[10])
Ignoring empty pin current: Ix(x5:clk[11])
Ignoring empty pin current: Ix(x5:clk[12])
Ignoring empty pin current: Ix(x5:clk[13])
Ignoring empty pin current: Ix(x5:clk[14])
Ignoring empty pin current: Ix(x5:clk[15])
Ignoring empty pin current: Ix(x5:clk[16])
Ignoring empty pin current: Ix(x5:clk[17])
Ignoring empty pin current: Ix(x5:clk[18])
Ignoring empty pin current: Ix(x5:clk[19])
Ignoring empty pin current: Ix(x5:clk[20])
Ignoring empty pin current: Ix(x5:clk[21])
Ignoring empty pin current: Ix(x5:clk[22])
Ignoring empty pin current: Ix(x5:clk[23])
Ignoring empty pin current: Ix(x5:clk[24])
Ignoring empty pin current: Ix(x5:clk[25])
Ignoring empty pin current: Ix(x5:clk[26])
Ignoring empty pin current: Ix(x5:clk[27])
Ignoring empty pin current: Ix(x5:clk[28])
Ignoring empty pin current: Ix(x5:clk[29])
Ignoring empty pin current: Ix(x5:clk[30])
Ignoring empty pin current: Ix(x5:clk[31])
Ignoring empty pin current: Ix(x5:clk[32])
Ignoring empty pin current: Ix(x5:clk[33])
Ignoring empty pin current: Ix(x5:clk[34])
Ignoring empty pin current: Ix(x5:clk[35])
Ignoring empty pin current: Ix(x5:clk[36])
Heightened Def Con from 5.00148e-009 to 5.00149e-009
Heightened Def Con from 8.00592e-009 ++++++++++++++++++++++++++++++++++to 8.00592e-009
Heightened Def Con from 8.00593e-009 +to 8.00673e-009
Heightened Def Con from 1.20059e-008 +++++++++++++++++++++++++++++++++++to 1.20059e-008
Heightened Def Con from 1.20059e-008 ++++++++++++++++++++++++++++++++++to 1.20059e-008
Heightened Def Con from 1.60059e-008 ++++++++++++++++++++++++++++++++++to 1.60059e-008
Heightened Def Con from 1.60059e-008 +to 1.60067e-008
Heightened Def Con from 2.00059e-008 ++++++++++++++++++++++++++++++++++to 2.00059e-008
Heightened Def Con from 2.00059e-008 +to 2.00067e-008
Heightened Def Con from 2.40059e-008 ++++++++++++++++++++++++++++++++++to 2.40059e-008
Heightened Def Con from 2.40059e-008 +to 2.40067e-008
Heightened Def Con from 2.80059e-008 ++++++++++++++++++++++++++++++++++to 2.80059e-008
Heightened Def Con from 2.80059e-008 +to 2.80067e-008
Heightened Def Con from 3.20059e-008 ++++++++++++++++++++++++++++++++++to 3.20059e-008
Heightened Def Con from 3.20059e-008 +to 3.20067e-008
Heightened Def Con from 3.60059e-008 ++++++++++++++++++++++++++++++++++to 3.60059e-008
Heightened Def Con from 3.60059e-008 +to 3.60067e-008
Heightened Def Con from 4.00059e-008 ++++++++++++++++++++++++++++++++++to 4.00059e-008
Heightened Def Con from 4.00059e-008 +to 4.00067e-008
Heightened Def Con from 4.40059e-008 ++++++++++++++++++++++++++++++++++to 4.40059e-008
Heightened Def Con from 4.40059e-008 +to 4.40067e-008
Heightened Def Con from 4.80059e-008 ++++++++++++++++++++++++++++++++++to 4.80059e-008
Heightened Def Con from 4.80059e-008 +to 4.80067e-008
Heightened Def Con from 5.2006e-008 to 5.2006e-008
Heightened Def Con from 5.2006e-008 +to 5.20068e-008
Heightened Def Con from 5.60059e-008 ++++++++++++++++++++++++++++++++++to 5.60059e-008
Heightened Def Con from 5.60059e-008 +to 5.60067e-008
Heightened Def Con from 6.0005e-008 to 6.00058e-008
Heightened Def Con from 6.00059e-008 ++++++++++++++++++++++++++++++++++to 6.00059e-008
Heightened Def Con from 6.0006e-008 +to 6.00067e-008
Heightened Def Con from 6.40059e-008 ++++++++++++++++++++++++++++++++++to 6.40059e-008
Heightened Def Con from 6.40059e-008 +to 6.40067e-008
Heightened Def Con from 6.80059e-008 ++++++++++++++++++++++++++++++++++to 6.80059e-008
Heightened Def Con from 6.80059e-008 +to 6.80067e-008
Heightened Def Con from 7.20059e-008 ++++++++++++++++++++++++++++++++++to 7.20059e-008
Heightened Def Con from 7.20059e-008 +to 7.20067e-008
Heightened Def Con from 7.60059e-008 ++++++++++++++++++++++++++++++++++to 7.60059e-008
Heightened Def Con from 7.60059e-008 +to 7.60067e-008
Heightened Def Con from 8.40059e-008 ++++++++++++++++++++++++++++++++++to 8.40059e-008
Heightened Def Con from 8.40059e-008 +to 8.40067e-008
Heightened Def Con from 8.80059e-008 ++++++++++++++++++++++++++++++++++to 8.80059e-008
Heightened Def Con from 8.80059e-008 +to 8.80067e-008
Heightened Def Con from 9.20059e-008 ++++++++++++++++++++++++++++++++++to 9.20059e-008
Heightened Def Con from 9.20059e-008 +to 9.20067e-008
Heightened Def Con from 9.60059e-008 ++++++++++++++++++++++++++++++++++