Circuit: * C:\Users\Mark\Documents\Working-Projects\Monolithic DC-DC Synthesis\AdvancedModels\spice\Draft1.asc

.OP point found by inspection.

Date: Sun Dec 06 17:23:08 2020
Total elapsed time: 101.623 seconds.

tnom = 27
temp = 27
method = trap
totiter = 40002024
traniter = 40002024
tranpoints = 20001013
accept = 20000774
rejected = 239
matrix size = 1
fillins = 0
solver = Normal
Matrix Compiler1: off  0.0/0.0/[0.0]
Matrix Compiler2: 43 bytes object code size  0.0/0.1/[0.0]

