Circuit: * C:\Users\Mark\Documents\Working-Projects\LeakageModel\LTspice\CMOS_Char_dc.asc


Date: Sun Nov 08 19:55:58 2020
Total elapsed time: 0.094 seconds.

tnom = 27
temp = 27
method = trap
totiter = 2005
traniter = 0
tranpoints = 0
accept = 0
rejected = 0
matrix size = 14
fillins = 0
solver = Normal
Matrix Compiler1: 726 bytes object code size  0.3/0.2/[0.1]
Matrix Compiler2: 1.26 KB object code size  0.2/0.2/[0.1]

