Circuit: * C:\Users\Mark\Documents\Working-Projects\LeakageModel\LTspice\CMOS_Char_ac.asc

Direct Newton iteration for .op point succeeded.

Date: Sun Nov 08 19:48:52 2020
Total elapsed time: 0.059 seconds.

tnom = 27
temp = 27
method = trap
totiter = 4
traniter = 0
tranpoints = 0
accept = 0
rejected = 0
matrix size = 14
fillins = 0
solver = Normal
Matrix Compiler1:      43 opcodes
Matrix Compiler2: 1.26 KB object code size
