Circuit: * C:\Users\Mark\Documents\Working-Projects\LeakageModel\LTspice\Dickson_Real_N=3.asc

Direct Newton iteration for .op point succeeded.
Ignoring empty pin current: Ix(x2:clk1)
Ignoring empty pin current: Ix(x1:clk1)
Ignoring empty pin current: Ix(x3:clk1)
Ignoring empty pin current: Ix(x4:clk1)
Ignoring empty pin current: Ix(x5:clk1)
Ignoring empty pin current: Ix(x6:clk1)
Ignoring empty pin current: Ix(x2:clk1)
Ignoring empty pin current: Ix(x1:clk1)
Ignoring empty pin current: Ix(x3:clk1)
Ignoring empty pin current: Ix(x4:clk1)
Ignoring empty pin current: Ix(x5:clk1)
Ignoring empty pin current: Ix(x6:clk1)

Date: Mon Jun 01 16:07:27 2020
Total elapsed time: 0.905 seconds.

tnom = 27
temp = 27
method = modified trap
totiter = 73027
traniter = 73023
tranpoints = 33160
accept = 32383
rejected = 777
matrix size = 34
fillins = 2
solver = Normal
Matrix Compiler1: 1.24 KB object code size  0.6/0.2/[0.1]
Matrix Compiler2: 3.12 KB object code size  0.3/0.4/[0.2]

