Circuit: * C:\Users\Mark\Documents\Working-Projects\LeakageModel\LTspice\Dickson_Real_N=3.asc

Direct Newton iteration for .op point succeeded.
Ignoring empty pin current: Ix(x1:clk1)
Ignoring empty pin current: Ix(x2:clk1)
Ignoring empty pin current: Ix(x3:clk1)
Ignoring empty pin current: Ix(x4:clk1)
Ignoring empty pin current: Ix(x5:clk1)
Ignoring empty pin current: Ix(x6:clk1)
Ignoring empty pin current: Ix(x1:clk1)
Ignoring empty pin current: Ix(x2:clk1)
Ignoring empty pin current: Ix(x3:clk1)
Ignoring empty pin current: Ix(x4:clk1)
Ignoring empty pin current: Ix(x5:clk1)
Ignoring empty pin current: Ix(x6:clk1)

Date: Tue Jun 02 22:28:06 2020
Total elapsed time: 6.875 seconds.

tnom = 27
temp = 27
method = modified trap
totiter = 808767
traniter = 808763
tranpoints = 401970
accept = 401489
rejected = 481
matrix size = 34
fillins = 2
solver = Normal
Matrix Compiler1: 1.24 KB object code size  1.7/0.7/[0.4]
Matrix Compiler2: 3.12 KB object code size  1.0/1.4/[0.7]

