Circuit: * C:\Users\Mark\Documents\Working-Projects\LeakageModel\LTspice\Dickson_Real_N=3.asc

Direct Newton iteration for .op point succeeded.
Ignoring empty pin current: Ix(x1:clk1)
Ignoring empty pin current: Ix(x2:clk1)
Ignoring empty pin current: Ix(x3:clk1)
Ignoring empty pin current: Ix(x4:clk1)
Ignoring empty pin current: Ix(x5:clk1)
Ignoring empty pin current: Ix(x6:clk1)
Ignoring empty pin current: Ix(x1:clk1)
Ignoring empty pin current: Ix(x2:clk1)
Ignoring empty pin current: Ix(x3:clk1)
Ignoring empty pin current: Ix(x4:clk1)
Ignoring empty pin current: Ix(x5:clk1)
Ignoring empty pin current: Ix(x6:clk1)

Date: Sat Oct 31 14:23:53 2020
Total elapsed time: 2.340 seconds.

tnom = 27
temp = 27
method = modified trap
totiter = 336866
traniter = 336862
tranpoints = 161333
accept = 159125
rejected = 2208
matrix size = 34
fillins = 2
solver = Normal
Thread vector: 6.8/5.4[2] 3.4/3.0[2] 1.1/1.2[1] 0.4/1.1[1]  2592/500
Matrix Compiler1: 1.24 KB object code size  1.3/0.6/[0.4]
Matrix Compiler2: 3.12 KB object code size  0.7/1.1/[0.5]

