Circuit: * C:\Users\Mark\Documents\Working-Projects\LeakageModel\LTspice\PMOS_Char.asc

.OP point found by inspection.

Date: Sun Nov 08 00:50:45 2020
Total elapsed time: 0.061 seconds.

tnom = 27
temp = 27
method = trap
totiter = 0
traniter = 0
tranpoints = 0
accept = 0
rejected = 0
matrix size = 8
fillins = 3
solver = Normal

