Circuit: * C:\Users\Mark\Documents\Working-Projects\LeakageModel\LTspice\PMOS_Char_dc.asc


Date: Sun Nov 08 00:42:13 2020
Total elapsed time: 0.079 seconds.

tnom = 27
temp = 27
method = trap
totiter = 2005
traniter = 0
tranpoints = 0
accept = 0
rejected = 0
matrix size = 8
fillins = 0
solver = Normal
Matrix Compiler1: 300 bytes object code size  0.1/0.1/[0.0]
Matrix Compiler2: 668 bytes object code size  0.1/0.1/[0.1]

