Circuit: * C:\Users\Mark\Documents\Working-Projects\Monolithic DC-DC Synthesis\4Terminal\SPICE\4Term_Model_TB.asc

Questionable use of curly braces in "b5 tp1 t1  v={{a}*(v(b1)-v(b2)+v(t2)-v(t1))/(2*({a}+1))}"
    Error: undefined symbol in: "(a)*([v](b1)-v(b2)+v(t2)-v(t1))/(2*((a)+1))"
Questionable use of curly braces in "b6 t2 tp2  v={{a}*(v(b1)-v(b2)+v(t2)-v(t1))/(2*({a}+1))}"
    Error: undefined symbol in: "(a)*([v](b1)-v(b2)+v(t2)-v(t1))/(2*((a)+1))"
Questionable use of curly braces in "b1 bp1 b1  v={-{a}*(v(b1)-v(b2)+v(t2)-v(t1))/(2*({a}+1))}"
    Error: undefined symbol in: "-(a)*([v](b1)-v(b2)+v(t2)-v(t1))/(2*((a)+1))"
Questionable use of curly braces in "b§dv2 b2 bp2  v={-{a}*(v(b1)-v(b2)+v(t2)-v(t1))/(2*({a}+1))}"
    Error: undefined symbol in: "-(a)*([v](b1)-v(b2)+v(t2)-v(t1))/(2*((a)+1))"
WARNING: Less than two connections to node B.  This node is used by V§OUT1.
WARNING: Less than two connections to node T.  This node is used by V§OUT2.
Direct Newton iteration for .op point succeeded.

Date: Fri Dec 04 23:10:40 2020
Total elapsed time: 0.095 seconds.

tnom = 27
temp = 27
method = trap
totiter = 2085
traniter = 2082
tranpoints = 1042
accept = 1042
rejected = 0
matrix size = 20
fillins = 0
solver = Normal
Matrix Compiler1: 522 bytes object code size  0.3/0.2/[0.0]
Matrix Compiler2: 1.33 KB object code size  0.2/0.3/[0.1]

