Circuit: * C:\Users\Mark\Documents\Working-Projects\Monolithic DC-DC Synthesis\4Terminal\SPICE\4Term_Model_TB.asc

Questionable use of curly braces in "b4 bp1 bp2  i={{b}*{c}*{f}*(v(bp1)-v(bp2))}"
    Error: undefined symbol in: "(b)*(c)*(f)*([v](bp1)-v(bp2))"
Questionable use of curly braces in "b5 tp1 t1  v={{a}*(v(b1)-v(b2)+v(t2)-v(t1))/(2*({a}+1))}"
    Error: undefined symbol in: "(a)*([v](b1)-v(b2)+v(t2)-v(t1))/(2*((a)+1))"
Questionable use of curly braces in "b8 tp1 tp2  i={{t}*{c}*{f}*(v(tp1)-v(tp2))}"
    Error: undefined symbol in: "(t)*(c)*(f)*([v](tp1)-v(tp2))"
Questionable use of curly braces in "b6 t2 tp2  v={{a}*(v(b1)-v(b2)+v(t2)-v(t1))/(2*({a}+1))}"
    Error: undefined symbol in: "(a)*([v](b1)-v(b2)+v(t2)-v(t1))/(2*((a)+1))"
Questionable use of curly braces in "b1 bp1 b1  v={-{a}*(v(b1)-v(b2)+v(t2)-v(t1))/(2*({a}+1))}"
    Error: undefined symbol in: "-(a)*([v](b1)-v(b2)+v(t2)-v(t1))/(2*((a)+1))"
Questionable use of curly braces in "b2 b2 bp2  v={-{a}*(v(b1)-v(b2)+v(t2)-v(t1))/(2*({a}+1))}"
    Error: undefined symbol in: "-(a)*([v](b1)-v(b2)+v(t2)-v(t1))/(2*((a)+1))"
Direct Newton iteration for .op point succeeded.

Date: Tue Dec 01 23:37:30 2020
Total elapsed time: 0.482 seconds.

tnom = 27
temp = 27
method = trap
totiter = 3
traniter = 0
tranpoints = 0
accept = 0
rejected = 0
matrix size = 16
fillins = 0
solver = Normal
Matrix Compiler1: 574 bytes object code size
Matrix Compiler2: 1.14 KB object code size
