Circuit: * C:\Users\Mark\Documents\Working-Projects\Monolithic DC-DC Synthesis\4Terminal\SPICE\SCcore_TB.asc

Direct Newton iteration for .op point succeeded.
Ignoring empty pin current: Ix(x1:clk1)
Ignoring empty pin current: Ix(x1:clk1)
.step vout=1.3
.step vout=1.32
.step vout=1.34
.step vout=1.36
.step vout=1.38
.step vout=1.4
.step vout=1.42
.step vout=1.44
.step vout=1.46
.step vout=1.48
.step vout=1.5
.step vout=1.52
.step vout=1.54
.step vout=1.56
.step vout=1.58
.step vout=1.6
.step vout=1.62
.step vout=1.64
.step vout=1.66
.step vout=1.68
.step vout=1.7
.step vout=1.72
.step vout=1.74
.step vout=1.76
.step vout=1.78
.step vout=1.8
.step vout=1.82
.step vout=1.84
.step vout=1.86
.step vout=1.88
.step vout=1.9


Measurement: iout
  step	AVG(i(out))	FROM	TO
     1	0.0730369	0	4e-009
     2	0.070593	0	4e-009
     3	0.0681491	0	4e-009
     4	0.0657052	0	4e-009
     5	0.0632613	0	4e-009
     6	0.0608174	0	4e-009
     7	0.0583735	0	4e-009
     8	0.0559295	0	4e-009
     9	0.0534856	0	4e-009
    10	0.0510417	0	4e-009
    11	0.0485978	0	4e-009
    12	0.0461539	0	4e-009
    13	0.04371	0	4e-009
    14	0.041266	0	4e-009
    15	0.0388221	0	4e-009
    16	0.0363782	0	4e-009
    17	0.0339343	0	4e-009
    18	0.0314904	0	4e-009
    19	0.0290465	0	4e-009
    20	0.0266026	0	4e-009
    21	0.0241586	0	4e-009
    22	0.0217147	0	4e-009
    23	0.0192708	0	4e-009
    24	0.0168269	0	4e-009
    25	0.014383	0	4e-009
    26	0.0119391	0	4e-009
    27	0.00949515	0	4e-009
    28	0.00705123	0	4e-009
    29	0.00460732	0	4e-009
    30	0.0021634	0	4e-009
    31	-0.000280517	0	4e-009

Measurement: iin
  step	AVG(i(in))	FROM	TO
     1	-0.162324	0	4e-009
     2	-0.157686	0	4e-009
     3	-0.153048	0	4e-009
     4	-0.14841	0	4e-009
     5	-0.143773	0	4e-009
     6	-0.139135	0	4e-009
     7	-0.134497	0	4e-009
     8	-0.129859	0	4e-009
     9	-0.125221	0	4e-009
    10	-0.120584	0	4e-009
    11	-0.115946	0	4e-009
    12	-0.111308	0	4e-009
    13	-0.10667	0	4e-009
    14	-0.102032	0	4e-009
    15	-0.0973944	0	4e-009
    16	-0.0927566	0	4e-009
    17	-0.0881188	0	4e-009
    18	-0.0834809	0	4e-009
    19	-0.0788431	0	4e-009
    20	-0.0742053	0	4e-009
    21	-0.0695674	0	4e-009
    22	-0.0649296	0	4e-009
    23	-0.0602918	0	4e-009
    24	-0.055654	0	4e-009
    25	-0.0510161	0	4e-009
    26	-0.0463783	0	4e-009
    27	-0.0417405	0	4e-009
    28	-0.0371026	0	4e-009
    29	-0.0324648	0	4e-009
    30	-0.027827	0	4e-009
    31	-0.0231891	0	4e-009


Date: Fri Dec 04 01:54:23 2020
Total elapsed time: 19.209 seconds.

tnom = 27
temp = 27
method = trap
totiter = 333372
traniter = 333368
tranpoints = 160356
accept = 157438
rejected = 2918
matrix size = 10
fillins = 0
solver = Normal
Matrix Compiler1: 238 bytes object code size  0.1/0.1/[0.0]
Matrix Compiler2: off  [0.1]/0.2/0.1

